LAMMPS (29 Aug 2024 - Update 2)
# BCC solid (LJ) with custom thermo output
# - BCC initial structure
# - custom thermo_style (NOT multi)
# - multiple run segments
# - includes user-defined variable in thermo output

clear
units           lj
atom_style      atomic
boundary        p p p

shell           mkdir -p out

variable        a equal 1.05
lattice         bcc 1.05
Lattice spacing in x,y,z = 1.2395962 1.2395962 1.2395962
region          box block 0 10 0 10 0 10
create_box      1 box
Created orthogonal box = (0 0 0) to (12.395962 12.395962 12.395962)
create_atoms    1 box
Created 2000 atoms

mass            1 1.0
pair_style      lj/cut 2.5
pair_coeff      1 1 1.0 1.0 2.5

neighbor        0.3 bin
neigh_modify    delay 0 every 1 check yes

velocity        all create 0.8 24680 mom yes rot yes dist gaussian
timestep        0.005

# Custom computes/variables to show up in thermo
compute         msd_all all msd
variable        msd equal c_msd_all[4]
variable        rho equal density

thermo_style    custom step temp pe ke etotal press pxx pyy pzz vol v_rho v_msd
thermo_modify   format float %14.6g
thermo          25

run             0
Generated 0 of 0 mixed pair_coeff terms from geometric mixing rule
Step          Temp          PotEng         KinEng         TotEng         Press           Pxx            Pyy            Pzz           Volume         v_rho          v_msd
0             0.8       -7.65892         1.1994       -6.45952        1.09373        1.07976        1.11539        1.08606        1904.76           1.05              0
Loop time of 4.16e-07 on 1 procs for 0 steps with 2000 atoms

# Run segment 1: NVT at T=0.8
fix             1 all nvt temp 0.8 0.8 1.0
run             1000
Generated 0 of 0 mixed pair_coeff terms from geometric mixing rule
Step          Temp          PotEng         KinEng         TotEng         Press           Pxx            Pyy            Pzz           Volume         v_rho          v_msd
0             0.8       -7.65892         1.1994       -6.45952        1.09373        1.07976        1.11539        1.08606        1904.76           1.05              0
Averages over the last 21 of 41 rows, steps 500 to 1000:
Temp PotEng KinEng TotEng Press Pxx Pyy Pzz Volume v_rho v_msd
0.656434 -6.81246 0.984157 -5.8283 5.8024 5.82791 5.83069 5.74861 1904.76 1.05 0.0684332
Loop time of 1.11718 on 1 procs for 1000 steps with 2000 atoms

unfix           1

# Run segment 2: NVE (watch energy conservation)
fix             2 all nve
run             1200
Generated 0 of 0 mixed pair_coeff terms from geometric mixing rule
Step          Temp          PotEng         KinEng         TotEng         Press           Pxx            Pyy            Pzz           Volume         v_rho          v_msd
1000        0.743292       -6.69215        1.11438       -5.57777        6.56131        6.61486         6.4857        6.58338        1904.76           1.05      0.0618053
Averages over the last 25 of 49 rows, steps 1600 to 2200:
Temp PotEng KinEng TotEng Press Pxx Pyy Pzz Volume v_rho v_msd
0.768655 -6.74172 1.15241 -5.58931 6.40354 6.10979 6.27454 6.82628 1904.76 1.05 0.108591
Loop time of 1.34872 on 1 procs for 1200 steps with 2000 atoms

unfix           2

dump            1 all custom 200 out/traj.lammpstrj id type x y z
run             400
Generated 0 of 0 mixed pair_coeff terms from geometric mixing rule
Step          Temp          PotEng         KinEng         TotEng         Press           Pxx            Pyy            Pzz           Volume         v_rho          v_msd
2200        0.785562        -6.7701        1.17775       -5.59235        6.29266        5.91018        6.36396        6.60385        1904.76           1.05       0.124827
Loop time of 0.304205 on 1 procs for 400 steps with 2000 atoms

undump          1

write_data      out/final.data
System init for write_data ...
Generated 0 of 0 mixed pair_coeff terms from geometric mixing rule
