LAMMPS (29 Aug 2024 - Update 2)
# BCC solid (LJ) switching thermo output styles
# - BCC initial structure
# - thermo_style multi AND non-multi (custom) within the same script
# - multiple run segments
# - custom thermo output includes user-defined variable

clear
units           lj
atom_style      atomic
boundary        p p p

shell           mkdir -p out

variable        a equal 1.05
lattice         bcc 1.05
Lattice spacing in x,y,z = 1.2395962 1.2395962 1.2395962
region          box block 0 10 0 10 0 10
create_box      1 box
Created orthogonal box = (0 0 0) to (12.395962 12.395962 12.395962)
create_atoms    1 box
Created 2000 atoms

mass            1 1.0
pair_style      lj/cut 2.5
pair_coeff      1 1 1.0 1.0 2.5

neighbor        0.3 bin
neigh_modify    delay 0 every 1 check yes

velocity        all create 0.7 11223 mom yes rot yes dist gaussian
timestep        0.005

# Segment 0: multi style
thermo_style    multi
thermo          100
run             0
Generated 0 of 0 mixed pair_coeff terms from geometric mixing rule
TotEng   =        -6.6094 KinEng   =         1.0495 Temp     =         0.7000
PotEng   =        -7.6589 E_bond   =         0.0000 E_angle  =         0.0000
E_dihed  =         0.0000 E_impro  =         0.0000 E_vdwl   =        -7.6589
E_coul   =         0.0000 E_long   =         0.0000 Press    =         0.9888
Loop time of 5e-07 on 1 procs for 0 steps with 2000 atoms

fix             1 all nvt temp 0.7 0.7 1.0
run             1500
Generated 0 of 0 mixed pair_coeff terms from geometric mixing rule
TotEng   =        -6.6094 KinEng   =         1.0495 Temp     =         0.7000
PotEng   =        -7.6589 E_bond   =         0.0000 E_angle  =         0.0000
E_dihed  =         0.0000 E_impro  =         0.0000 E_vdwl   =        -7.6589
E_coul   =         0.0000 E_long   =         0.0000 Press    =         0.9888
TotEng   =        -6.5549 KinEng   =         0.5734 Temp     =         0.3824
PotEng   =        -7.1282 E_bond   =         0.0000 E_angle  =         0.0000
E_dihed  =         0.0000 E_impro  =         0.0000 E_vdwl   =        -7.1282
E_coul   =         0.0000 E_long   =         0.0000 Press    =         3.6899
TotEng   =        -6.4984 KinEng   =         0.6149 Temp     =         0.4101
PotEng   =        -7.1133 E_bond   =         0.0000 E_angle  =         0.0000
E_dihed  =         0.0000 E_impro  =         0.0000 E_vdwl   =        -7.1133
E_coul   =         0.0000 E_long   =         0.0000 Press    =         3.8074
TotEng   =        -6.4305 KinEng   =         0.6599 Temp     =         0.4402
PotEng   =        -7.0904 E_bond   =         0.0000 E_angle  =         0.0000
E_dihed  =         0.0000 E_impro  =         0.0000 E_vdwl   =        -7.0904
E_coul   =         0.0000 E_long   =         0.0000 Press    =         3.9845
TotEng   =        -6.3558 KinEng   =         0.6959 Temp     =         0.4641
PotEng   =        -7.0516 E_bond   =         0.0000 E_angle  =         0.0000
E_dihed  =         0.0000 E_impro  =         0.0000 E_vdwl   =        -7.0516
E_coul   =         0.0000 E_long   =         0.0000 Press    =         4.2534
TotEng   =        -6.2765 KinEng   =         0.7469 Temp     =         0.4982
PotEng   =        -7.0234 E_bond   =         0.0000 E_angle  =         0.0000
E_dihed  =         0.0000 E_impro  =         0.0000 E_vdwl   =        -7.0234
E_coul   =         0.0000 E_long   =         0.0000 Press    =         4.4738
TotEng   =        -6.1896 KinEng   =         0.7711 Temp     =         0.5143
PotEng   =        -6.9607 E_bond   =         0.0000 E_angle  =         0.0000
E_dihed  =         0.0000 E_impro  =         0.0000 E_vdwl   =        -6.9607
E_coul   =         0.0000 E_long   =         0.0000 Press    =         4.8328
TotEng   =        -6.0987 KinEng   =         0.8364 Temp     =         0.5579
PotEng   =        -6.9351 E_bond   =         0.0000 E_angle  =         0.0000
E_dihed  =         0.0000 E_impro  =         0.0000 E_vdwl   =        -6.9351
E_coul   =         0.0000 E_long   =         0.0000 Press    =         5.0227
TotEng   =        -6.0078 KinEng   =         0.8904 Temp     =         0.5939
PotEng   =        -6.8983 E_bond   =         0.0000 E_angle  =         0.0000
E_dihed  =         0.0000 E_impro  =         0.0000 E_vdwl   =        -6.8983
E_coul   =         0.0000 E_long   =         0.0000 Press    =         5.2529
TotEng   =        -5.9196 KinEng   =         0.9351 Temp     =         0.6237
PotEng   =        -6.8547 E_bond   =         0.0000 E_angle  =         0.0000
E_dihed  =         0.0000 E_impro  =         0.0000 E_vdwl   =        -6.8547
E_coul   =         0.0000 E_long   =         0.0000 Press    =         5.5040
TotEng   =        -5.8346 KinEng   =         0.9846 Temp     =         0.6567
PotEng   =        -6.8192 E_bond   =         0.0000 E_angle  =         0.0000
E_dihed  =         0.0000 E_impro  =         0.0000 E_vdwl   =        -6.8192
E_coul   =         0.0000 E_long   =         0.0000 Press    =         5.7463
TotEng   =        -5.7605 KinEng   =         1.0106 Temp     =         0.6741
PotEng   =        -6.7711 E_bond   =         0.0000 E_angle  =         0.0000
E_dihed  =         0.0000 E_impro  =         0.0000 E_vdwl   =        -6.7711
E_coul   =         0.0000 E_long   =         0.0000 Press    =         6.0549
TotEng   =        -5.6920 KinEng   =         1.0471 Temp     =         0.6984
PotEng   =        -6.7391 E_bond   =         0.0000 E_angle  =         0.0000
E_dihed  =         0.0000 E_impro  =         0.0000 E_vdwl   =        -6.7391
E_coul   =         0.0000 E_long   =         0.0000 Press    =         6.2300
TotEng   =        -5.6431 KinEng   =         1.0920 Temp     =         0.7284
PotEng   =        -6.7352 E_bond   =         0.0000 E_angle  =         0.0000
E_dihed  =         0.0000 E_impro  =         0.0000 E_vdwl   =        -6.7352
E_coul   =         0.0000 E_long   =         0.0000 Press    =         6.2997
TotEng   =        -5.6120 KinEng   =         1.1166 Temp     =         0.7448
PotEng   =        -6.7286 E_bond   =         0.0000 E_angle  =         0.0000
E_dihed  =         0.0000 E_impro  =         0.0000 E_vdwl   =        -6.7286
E_coul   =         0.0000 E_long   =         0.0000 Press    =         6.3547
TotEng   =        -5.6053 KinEng   =         1.0870 Temp     =         0.7250
PotEng   =        -6.6923 E_bond   =         0.0000 E_angle  =         0.0000
E_dihed  =         0.0000 E_impro  =         0.0000 E_vdwl   =        -6.6923
E_coul   =         0.0000 E_long   =         0.0000 Press    =         6.5190
Loop time of 1.7472 on 1 procs for 1500 steps with 2000 atoms

unfix           1

# Segment 1: switch to custom thermo (not multi)
variable        rho equal density
thermo_style    custom step temp pe etotal press lx ly lz vol v_rho
thermo_modify   format float %14.6g
thermo          50

fix             2 all nvt temp 0.7 1.0 1.0
run             1800
Generated 0 of 0 mixed pair_coeff terms from geometric mixing rule
Step          Temp          PotEng         TotEng         Press            Lx             Ly             Lz           Volume         v_rho
1500        0.725033       -6.69228       -5.60528        6.51903         12.396         12.396         12.396        1904.76           1.05
Averages over the last 19 of 37 rows, steps 2400 to 3300:
Temp PotEng TotEng Press Lx Ly Lz Volume v_rho
0.887415 -6.59626 -5.2658 7.31821 12.396 12.396 12.396 1904.76 1.05
Loop time of 2.08195 on 1 procs for 1800 steps with 2000 atoms

unfix           2

# Segment 2: switch back to multi
thermo_style    multi
thermo          200

fix             3 all nve
run             600
Generated 0 of 0 mixed pair_coeff terms from geometric mixing rule
TotEng   =        -5.0390 KinEng   =         1.4600 Temp     =         0.9738
PotEng   =        -6.4990 E_bond   =         0.0000 E_angle  =         0.0000
E_dihed  =         0.0000 E_impro  =         0.0000 E_vdwl   =        -6.4990
E_coul   =         0.0000 E_long   =         0.0000 Press    =         7.9221
TotEng   =        -5.0397 KinEng   =         1.4621 Temp     =         0.9752
PotEng   =        -6.5018 E_bond   =         0.0000 E_angle  =         0.0000
E_dihed  =         0.0000 E_impro  =         0.0000 E_vdwl   =        -6.5018
E_coul   =         0.0000 E_long   =         0.0000 Press    =         7.9037
TotEng   =        -5.0425 KinEng   =         1.4506 Temp     =         0.9676
PotEng   =        -6.4932 E_bond   =         0.0000 E_angle  =         0.0000
E_dihed  =         0.0000 E_impro  =         0.0000 E_vdwl   =        -6.4932
E_coul   =         0.0000 E_long   =         0.0000 Press    =         7.9914
TotEng   =        -5.0437 KinEng   =         1.4448 Temp     =         0.9637
PotEng   =        -6.4884 E_bond   =         0.0000 E_angle  =         0.0000
E_dihed  =         0.0000 E_impro  =         0.0000 E_vdwl   =        -6.4884
E_coul   =         0.0000 E_long   =         0.0000 Press    =         8.0138
TotEng   =        -5.0435 KinEng   =         1.4280 Temp     =         0.9525
PotEng   =        -6.4716 E_bond   =         0.0000 E_angle  =         0.0000
E_dihed  =         0.0000 E_impro  =         0.0000 E_vdwl   =        -6.4716
E_coul   =         0.0000 E_long   =         0.0000 Press    =         8.0887
Loop time of 0.682646 on 1 procs for 600 steps with 2000 atoms

unfix           3

dump            1 all custom 300 out/traj.lammpstrj id type x y z vx vy vz
run             300
Generated 0 of 0 mixed pair_coeff terms from geometric mixing rule
TotEng   =        -5.0435 KinEng   =         1.4280 Temp     =         0.9525
PotEng   =        -6.4716 E_bond   =         0.0000 E_angle  =         0.0000
E_dihed  =         0.0000 E_impro  =         0.0000 E_vdwl   =        -6.4716
E_coul   =         0.0000 E_long   =         0.0000 Press    =         8.0887
TotEng   =        -5.0435 KinEng   =         1.4280 Temp     =         0.9525
PotEng   =        -6.4716 E_bond   =         0.0000 E_angle  =         0.0000
E_dihed  =         0.0000 E_impro  =         0.0000 E_vdwl   =        -6.4716
E_coul   =         0.0000 E_long   =         0.0000 Press    =         8.0887
TotEng   =        -5.0435 KinEng   =         1.4280 Temp     =         0.9525
PotEng   =        -6.4716 E_bond   =         0.0000 E_angle  =         0.0000
E_dihed  =         0.0000 E_impro  =         0.0000 E_vdwl   =        -6.4716
E_coul   =         0.0000 E_long   =         0.0000 Press    =         8.0887
Loop time of 0.225618 on 1 procs for 300 steps with 2000 atoms

undump          1

write_data      out/final.data
System init for write_data ...
Generated 0 of 0 mixed pair_coeff terms from geometric mixing rule
